Version 4
SHEET 1 880 680
WIRE 432 -32 -32 -32
WIRE 112 32 -16 32
WIRE 320 32 176 32
WIRE -16 144 -16 32
WIRE 48 144 -16 144
WIRE 160 144 112 144
WIRE 320 144 320 32
WIRE 320 144 240 144
WIRE 64 208 32 208
WIRE 432 208 432 -32
WIRE 432 208 288 208
WIRE 512 208 432 208
WIRE 512 240 512 208
WIRE -16 272 -16 144
WIRE 48 272 -16 272
WIRE 64 272 48 272
WIRE 320 272 320 144
WIRE 320 272 288 272
WIRE 432 272 432 208
WIRE 432 272 400 272
WIRE 512 320 512 288
WIRE 64 336 -288 336
WIRE 336 336 288 336
WIRE 48 368 48 272
WIRE 336 368 336 336
WIRE 336 368 48 368
WIRE -32 400 -32 -32
WIRE 64 400 -32 400
WIRE 304 400 288 400
WIRE 32 464 32 208
WIRE 208 464 32 464
WIRE 304 464 208 464
WIRE 336 464 336 432
WIRE 336 464 304 464
WIRE 208 576 208 464
FLAG 208 576 0
FLAG 512 320 0
FLAG 512 208 15V
FLAG -288 336 Vout
FLAG -288 416 0
SYMBOL Misc/NE555 176 304 R0
SYMATTR InstName U1
SYMBOL voltage 512 192 R0
SYMATTR InstName V1
SYMATTR Value 15
SYMBOL res 416 256 R90
WINDOW 0 0 56 VBottom 2
WINDOW 3 32 56 VTop 2
SYMATTR InstName R1
SYMATTR Value 1000
SYMBOL res 144 160 R270
WINDOW 0 32 56 VTop 2
WINDOW 3 0 56 VBottom 2
SYMATTR InstName R2
SYMATTR Value 6000
SYMBOL cap 320 368 R0
SYMATTR InstName C1
SYMATTR Value 0.22µ
SYMBOL cap 288 400 R0
SYMATTR InstName C2
SYMATTR Value 0.01µ
SYMBOL diode 48 160 R270
WINDOW 0 32 32 VTop 2
WINDOW 3 0 32 VBottom 2
SYMATTR InstName D2
SYMBOL diode 176 16 R90
WINDOW 0 0 32 VBottom 2
WINDOW 3 32 32 VTop 2
SYMATTR InstName D1
SYMBOL res -304 320 R0
SYMATTR InstName R3
SYMATTR Value 10
TEXT -56 544 Left 2 !.tran 10m
TEXT -248 192 Left 2 ;Group 2 Controller
